*Heading
** Job name: paperclip Model name: Model-1
** Generated by: Abaqus/CAE 2019
*Preprint, echo=NO, model=NO, history=NO, contact=NO
**
** PARTS
**
*Part, name=clip
*Node
      1,          20.,           0.
      2,          20.,           4.
      3,           0.,           4.
      4,           0.,           0.
      5,          26.,           6.
      6,          22.,           6.
      7,          -6.,          -4.
      8,          -6.,          -8.
      9,          20.,          -8.
     10,          20.,          -4.
     11,          20.,          12.
     12,          20.,           8.
     13,         -12.,           2.
     14,         -16.,           2.
     15,          -6.,          12.
     16,          -6.,           8.
     17,          20.,  0.666666687
     18,          20.,   1.33333337
     19,          20.,           2.
     20,          20.,   2.66666675
** ... 1135 like lines cut
*Element, type=CPS3
  1,   1,  17, 371
  2, 371,  84,   1
  3,  17,  18, 372
  4, 372, 371,  17
  5,  18,  19, 373
  6, 373, 372,  18
  7,  19,  20, 374
  8, 374, 373,  19
  9,  20,  21, 375
 10, 375, 374,  20
 11,  21,   2,  22
 12,  22, 375,  21
 13,  84, 371, 376
 14, 376,  83,  84
 15, 371, 372, 377
 16, 377, 376, 371
 17, 372, 373, 378
 18, 378, 377, 372
 19, 373, 374, 379
 20, 379, 378, 373
** ... 1948 like lines cut
*Nset, nset=fixed_nodeset
  3,  4, 51, 52, 53, 54, 55
*Elset, elset=fixed_nodeset, generate
 350,  360,    2
*Nset, nset=load_nodeset
   9,  10, 149, 150, 151, 152, 153
*Elset, elset=load_nodeset, generate
 926,  936,    2
*Nset, nset=all_mesh, generate
    1,  1155,     1
*Elset, elset=all_mesh, generate
    1,  1968,     1
** Section: Section-1
*Solid Section, elset=all_mesh, material=Material-1
,
*End Part
**  
**
** ASSEMBLY
**
*Assembly, name=Assembly
**  
*Instance, name=clip-1, part=clip
*End Instance
**  
*End Assembly
** 
** MATERIALS
** 
*Material, name=Material-1
*Elastic
1., 0.3
** ----------------------------------------------------------------
** 
** STEP: Load
** 
*Step, name=Load, nlgeom=NO
*Static
1., 1., 1e-05, 1.
** 
** BOUNDARY CONDITIONS
** 
** Name: Fixed Type: Displacement/Rotation
*Boundary
clip-1.fixed_nodeset, 1, 1
clip-1.fixed_nodeset, 2, 2
** 
** OUTPUT REQUESTS
** 
*Restart, write, frequency=0
** 
** FIELD OUTPUT: F-Output-1
** 
*Output, field
*Node Output
UT, 
*Element Output, directions=YES
S, 
** 
** HISTORY OUTPUT: H-Output-1
** 
*Output, history, variable=PRESELECT
*End Step
